REMARK  3 active torsions:
REMARK  status: ('A' for Active; 'I' for Inactive)
REMARK    1  A    between atoms: C10_10  and  O21_21 
REMARK    2  A    between atoms: C11_11  and  O22_22 
REMARK    3  A    between atoms: C14_14  and  C16_16 
ROOT
ATOM      1  C1  UNK d          -4.600   3.216   1.786  0.00  0.00     0.031 C 
ATOM      2  C2  UNK d          -4.043   2.918   0.373  0.00  0.00     0.037 C 
ATOM      3  C3  UNK d          -2.522   2.781   0.263  0.00  0.00    -0.084 C 
ATOM      4  C4  UNK d          -1.953   1.598  -0.066  0.00  0.00     0.003 C 
ATOM      5  C5  UNK d          -0.523   1.329  -0.192  0.00  0.00     0.003 C 
ATOM      6  C6  UNK d          -4.164   2.234   2.866  0.00  0.00    -0.024 C 
ATOM      7  C7  UNK d          -4.780   1.092   3.248  0.00  0.00    -0.087 C 
ATOM      8  C8  UNK d          -4.196   0.200   4.349  0.00  0.00     0.036 C 
ATOM      9  C9  UNK d          -3.525  -1.109   3.847  0.00  0.00     0.039 C 
ATOM     10  C10 UNK d          -2.066  -0.979   3.311  0.00  0.00     0.152 C 
ATOM     11  C11 UNK d          -1.479  -2.216   2.527  0.00  0.00     0.080 C 
ATOM     12  C12 UNK d          -0.278  -1.855   1.585  0.00  0.00     0.044 C 
ATOM     13  C13 UNK d          -0.639  -1.197   0.217  0.00  0.00     0.037 C 
ATOM     14  C14 UNK d           0.086   0.120  -0.092  0.00  0.00    -0.076 C 
ATOM     15  C15 UNK d          -6.079   0.584   2.633  0.00  0.00     0.043 C 
ATOM     16  C19 UNK d          -1.747   4.059   0.568  0.00  0.00     0.043 C 
ATOM     17  C20 UNK d          -2.533  -3.074   1.780  0.00  0.00     0.048 C 
ENDROOT
BRANCH  11  18
ATOM     18  O22 UNK d          -0.945  -3.085   3.514  0.00  0.00    -0.388 OA
ATOM     19  H56 UNK d          -0.589  -3.861   3.075  0.00  0.00     0.210 HD
ENDBRANCH  11  18
BRANCH  10  20
ATOM     20  O21 UNK d          -1.949   0.198   2.550  0.00  0.00    -0.393 OA
ATOM     21  H55 UNK d          -1.037   0.289   2.263  0.00  0.00     0.210 HD
ENDBRANCH  10  20
BRANCH  14  22
ATOM     22  C16 UNK d           1.601  -0.016  -0.287  0.00  0.00     0.006 C 
ATOM     23  C17 UNK d           2.417   0.846   0.697  0.00  0.00     0.014 C 
ATOM     24  C18 UNK d           2.030   0.240  -1.743  0.00  0.00     0.014 C 
ENDBRANCH  14  22
TORSDOF 3
